/*--------------------------------*- C++ -*----------------------------------*\
| =========                 |                                                 |
| \\      /  F ield         | OpenFOAM: The Open Source CFD Toolbox           |
|  \\    /   O peration     | Version:  v2312                                 |
|   \\  /    A nd           | Website:  www.openfoam.com                      |
|    \\/     M anipulation  |                                                 |
\*---------------------------------------------------------------------------*/
FoamFile
{
    version     2.0;
    format      ascii;
    class       volVectorField;
    object      U;
}
// * * * * * * * * * * * * * * * * * * * * * * * * * * * * * * * * * * * * * //

dimensions      [0 1 -1 0 0 0 0];

internalField   uniform (0 0 0);

boundaryField
{
  leftWall
  {
    type            pressureInletOutletVelocity;
    value           uniform (0 0 0);
  }

  rightWall
  {
    type pressureInletOutletVelocity;
    value uniform (0 0 0);

  }

  bottom
  {
    type            fixedValue;
    value           uniform (0 0 0);
  }

  atmosphere
  {
    type            zeroGradient;

  }

  inlet
  {

        type            fixedValue;
        value           uniform (1 0 0); // Lava flows in the x-direction with a speed of 1 m/s

    }


  front
  {
      type            empty;

  }
  back
  {
    type            empty;

    }



}


// ************************************************************************* //
